<?xml version="1.0" encoding="UTF-8"?>

<!-- generated on 2025-11-25T17:20:50.970225+01:00 by Eclipse SUMO sumo 1.25.0
-->

<sumoConfiguration xmlns:xsi="http://www.w3.org/2001/XMLSchema-instance" xsi:noNamespaceSchemaLocation="http://sumo.dlr.de/xsd/sumoConfiguration.xsd">

    <input>
        <net-file value="Test.1.net.xml"/>
        <additional-files value="Test.1.add.xml"/>
    </input>

</sumoConfiguration>
