<?xml version="1.0" encoding="UTF-8"?>

<!-- generated on 2025-12-13T12:42:23.275602+01:00 by Eclipse SUMO sumo 1.25.0
-->

<sumoConfiguration xmlns:xsi="http://www.w3.org/2001/XMLSchema-instance" xsi:noNamespaceSchemaLocation="http://sumo.dlr.de/xsd/sumoConfiguration.xsd">

    <input>
        <net-file value="TestM2.net.xml"/>
        <route-files value="TestM2.rou.xml"/>
    </input>

</sumoConfiguration>
