<?xml version="1.0" encoding="UTF-8"?>

<!-- generated on 2025-12-13T12:42:27.186326+01:00 by Eclipse SUMO netedit 1.25.0
<neteditConfiguration xmlns:xsi="http://www.w3.org/2001/XMLSchema-instance" xsi:noNamespaceSchemaLocation="http://sumo.dlr.de/xsd/neteditConfiguration.xsd">

    <input>
        <sumocfg-file value="C:\Users\delil\Java_SUMO_Projekt_Final\TestM2.sumocfg"/>
        <route-files value="C:\Users\delil\Java_SUMO_Projekt_Final\TestM2.rou.xml"/>
        <sumo-net-file value="C:\Users\delil\Java_SUMO_Projekt_Final\TestM2.net.xml"/>
    </input>

    <output>
        <output-file value="C:\Users\delil\Java_SUMO_Projekt_Final\TestM2.net.xml"/>
    </output>

    <processing>
        <geometry.min-radius.fix.railways value="false"/>
        <geometry.avoid-overlap value="false"/>
        <geometry.max-grade.fix value="false"/>
        <offset.disable-normalization value="true"/>
        <lefthand value="0"/>
    </processing>

    <junctions>
        <no-turnarounds value="true"/>
        <junctions.corner-detail value="5"/>
        <junctions.limit-turn-speed value="5.50"/>
        <rectangular-lane-cut value="0"/>
    </junctions>

    <pedestrian>
        <walkingareas value="0"/>
    </pedestrian>

</neteditConfiguration>
-->

<net version="1.20" junctionCornerDetail="5" limitTurnSpeed="5.50" avoidOverlap="0" xmlns:xsi="http://www.w3.org/2001/XMLSchema-instance" xsi:noNamespaceSchemaLocation="http://sumo.dlr.de/xsd/net_file.xsd">

    <location netOffset="0.00,0.00" convBoundary="-243.94,-175.81,461.51,345.21" origBoundary="-10000000000.00,-10000000000.00,10000000000.00,10000000000.00" projParameter="!"/>

    <edge id=":J0_0" function="internal">
        <lane id=":J0_0_0" index="0" allow="bicycle" speed="4.28" length="3.90" width="1.00" shape="449.52,-162.77 449.34,-163.81 448.86,-164.57 448.10,-165.02 447.05,-165.18"/>
        <lane id=":J0_0_1" index="1" disallow="pedestrian" speed="5.97" length="7.18" shape="451.62,-162.84 451.28,-164.76 450.41,-166.15 449.01,-166.99 447.07,-167.28"/>
    </edge>
    <edge id=":J0_2" function="internal">
        <lane id=":J0_2_0" index="0" allow="bicycle" speed="8.28" length="15.46" width="1.00" shape="447.13,-172.58 451.29,-171.95 454.31,-170.14 456.19,-167.16 456.92,-163.02"/>
        <lane id=":J0_2_1" index="1" disallow="pedestrian" speed="7.57" length="12.18" shape="447.10,-170.48 450.39,-169.98 452.76,-168.56 454.24,-166.21 454.82,-162.94"/>
    </edge>
    <edge id=":J1_0" function="internal">
        <lane id=":J1_0_0" index="0" allow="bicycle" speed="7.91" length="8.82" width="1.00" shape="234.03,-36.11 232.96,-37.22 231.26,-38.02 228.91,-38.48 225.91,-38.62"/>
    </edge>
    <edge id=":J1_1" function="internal">
        <lane id=":J1_1_0" index="0" allow="bicycle" speed="13.89" length="15.15" width="1.00" shape="234.03,-36.11 231.92,-40.05 230.86,-42.93 230.26,-45.99 229.56,-50.43"/>
    </edge>
    <edge id=":J1_2" function="internal">
        <lane id=":J1_2_0" index="0" disallow="pedestrian" speed="8.99" length="0.96" shape="235.84,-37.15 235.21,-37.87"/>
    </edge>
    <edge id=":J1_3" function="internal">
        <lane id=":J1_3_0" index="0" disallow="pedestrian" speed="13.89" length="14.41" shape="235.84,-37.15 233.85,-40.90 232.85,-43.65 232.29,-46.56 231.63,-50.78"/>
    </edge>
    <edge id=":J1_12" function="internal">
        <lane id=":J1_12_0" index="0" disallow="pedestrian" speed="8.99" length="10.06" shape="235.21,-37.87 234.44,-38.73 232.31,-39.86 229.47,-40.52 225.89,-40.72"/>
    </edge>
    <edge id=":J1_4" function="internal">
        <lane id=":J1_4_0" index="0" allow="bicycle" speed="13.89" length="12.52" width="1.00" shape="236.85,-51.67 237.42,-47.99 237.87,-45.46 238.72,-43.06 240.44,-39.80"/>
    </edge>
    <edge id=":J1_5" function="internal">
        <lane id=":J1_5_0" index="0" allow="bicycle" speed="8.78" length="9.42" width="1.00" shape="236.85,-51.67 237.00,-45.99 235.50,-42.56"/>
    </edge>
    <edge id=":J1_6" function="internal">
        <lane id=":J1_6_0" index="0" disallow="pedestrian" speed="13.89" length="13.27" shape="234.78,-51.32 235.39,-47.42 235.88,-44.74 236.79,-42.21 238.62,-38.75"/>
    </edge>
    <edge id=":J1_7" function="internal">
        <lane id=":J1_7_0" index="0" disallow="pedestrian" speed="8.11" length="4.61" shape="234.78,-51.32 234.90,-46.71"/>
    </edge>
    <edge id=":J1_13" function="internal">
        <lane id=":J1_13_0" index="0" allow="bicycle" speed="8.78" length="10.81" width="1.00" shape="235.50,-42.56 235.22,-41.93 231.52,-39.47 225.91,-38.62"/>
    </edge>
    <edge id=":J1_14" function="internal">
        <lane id=":J1_14_0" index="0" disallow="pedestrian" speed="8.11" length="11.82" shape="234.90,-46.71 233.46,-43.41 230.45,-41.41 225.89,-40.72"/>
    </edge>
    <edge id=":J1_8" function="internal">
        <lane id=":J1_8_0" index="0" allow="bicycle" speed="5.19" length="6.83" width="1.00" shape="225.86,-46.02 227.76,-46.31 229.01,-47.14 229.61,-48.51 229.56,-50.43"/>
    </edge>
    <edge id=":J1_9" function="internal">
        <lane id=":J1_9_0" index="0" allow="bicycle" speed="10.80" length="16.60" width="1.00" shape="225.86,-46.02 230.88,-45.66 234.98,-44.50 238.17,-42.55 240.44,-39.80"/>
    </edge>
    <edge id=":J1_10" function="internal">
        <lane id=":J1_10_0" index="0" disallow="pedestrian" speed="6.65" length="10.64" shape="225.87,-43.92 228.83,-44.37 230.77,-45.66 231.70,-47.80 231.63,-50.78"/>
    </edge>
    <edge id=":J1_11" function="internal">
        <lane id=":J1_11_0" index="0" disallow="pedestrian" speed="10.21" length="14.38" shape="225.87,-43.92 230.32,-43.62 233.92,-42.66 236.69,-41.04 238.62,-38.75"/>
    </edge>
    <edge id=":J13_0" function="internal">
        <lane id=":J13_0_0" index="0" allow="bicycle" speed="5.79" length="6.25" width="1.00" shape="47.56,0.88 47.30,-0.66 46.58,-1.89 45.39,-2.81 43.74,-3.40"/>
        <lane id=":J13_0_1" index="1" disallow="pedestrian" speed="7.25" length="9.36" shape="49.66,0.85 49.27,-1.44 48.18,-3.27 46.38,-4.63 43.88,-5.52"/>
    </edge>
    <edge id=":J13_2" function="internal">
        <lane id=":J13_2_0" index="0" allow="bicycle" speed="5.78" length="6.26" width="1.00" shape="58.66,-3.61 57.02,-2.98 55.86,-2.04 55.17,-0.78 54.96,0.78"/>
    </edge>
    <edge id=":J13_3" function="internal">
        <lane id=":J13_3_0" index="0" allow="bicycle" speed="13.89" length="15.18" width="1.00" shape="58.66,-3.61 54.30,-2.57 51.21,-2.19 48.12,-2.47 43.74,-3.40"/>
    </edge>
    <edge id=":J13_4" function="internal">
        <lane id=":J13_4_0" index="0" disallow="pedestrian" speed="7.24" length="1.63" shape="58.46,-5.72 56.94,-5.14"/>
    </edge>
    <edge id=":J13_5" function="internal">
        <lane id=":J13_5_0" index="0" disallow="pedestrian" speed="13.89" length="14.83" shape="58.46,-5.72 54.20,-4.71 51.19,-4.34 48.16,-4.61 43.88,-5.52"/>
    </edge>
    <edge id=":J13_6" function="internal">
        <lane id=":J13_6_0" index="0" disallow="pedestrian" speed="7.24" length="7.76" shape="56.94,-5.14 55.99,-4.78 54.22,-3.37 53.18,-1.51 52.86,0.81"/>
    </edge>
    <edge id=":J14_0" function="internal">
        <lane id=":J14_0_0" index="0" allow="bicycle" speed="5.81" length="6.30" width="1.00" shape="92.98,-37.78 91.40,-37.53 90.14,-36.82 89.21,-35.64 88.60,-34.00"/>
        <lane id=":J14_0_1" index="1" disallow="pedestrian" speed="7.26" length="9.41" shape="92.97,-39.88 90.63,-39.51 88.77,-38.43 87.39,-36.65 86.48,-34.16"/>
    </edge>
    <edge id=":J14_2" function="internal">
        <lane id=":J14_2_0" index="0" allow="bicycle" speed="5.77" length="6.27" width="1.00" shape="88.58,-48.93 89.19,-47.28 90.12,-46.10 91.37,-45.40 92.93,-45.18"/>
    </edge>
    <edge id=":J14_3" function="internal">
        <lane id=":J14_3_0" index="0" allow="bicycle" speed="13.89" length="15.18" width="1.00" shape="88.58,-48.93 89.56,-44.56 89.89,-41.47 89.57,-38.38 88.60,-34.00"/>
    </edge>
    <edge id=":J14_4" function="internal">
        <lane id=":J14_4_0" index="0" disallow="pedestrian" speed="7.24" length="1.61" shape="86.46,-48.76 87.01,-47.25"/>
    </edge>
    <edge id=":J14_5" function="internal">
        <lane id=":J14_5_0" index="0" disallow="pedestrian" speed="13.89" length="14.84" shape="86.46,-48.76 87.42,-44.48 87.74,-41.46 87.43,-38.44 86.48,-34.16"/>
    </edge>
    <edge id=":J14_6" function="internal">
        <lane id=":J14_6_0" index="0" disallow="pedestrian" speed="7.24" length="7.80" shape="87.01,-47.25 87.38,-46.26 88.77,-44.48 90.62,-43.42 92.95,-43.08"/>
    </edge>
    <edge id=":J15_0" function="internal">
        <lane id=":J15_0_0" index="0" allow="bicycle" speed="5.83" length="6.31" width="1.00" shape="54.50,-83.69 54.74,-82.11 55.44,-80.84 56.62,-79.90 58.26,-79.28"/>
        <lane id=":J15_0_1" index="1" disallow="pedestrian" speed="7.28" length="9.42" shape="52.40,-83.68 52.76,-81.35 53.83,-79.48 55.60,-78.09 58.08,-77.16"/>
    </edge>
    <edge id=":J15_2" function="internal">
        <lane id=":J15_2_0" index="0" allow="bicycle" speed="5.77" length="6.28" width="1.00" shape="43.33,-79.31 44.98,-79.91 46.16,-80.84 46.87,-82.09 47.10,-83.66"/>
    </edge>
    <edge id=":J15_3" function="internal">
        <lane id=":J15_3_0" index="0" allow="bicycle" speed="13.89" length="15.18" width="1.00" shape="43.33,-79.31 47.71,-80.27 50.80,-80.60 53.89,-80.27 58.26,-79.28"/>
    </edge>
    <edge id=":J15_4" function="internal">
        <lane id=":J15_4_0" index="0" disallow="pedestrian" speed="7.22" length="1.62" shape="43.49,-77.19 45.01,-77.74"/>
    </edge>
    <edge id=":J15_5" function="internal">
        <lane id=":J15_5_0" index="0" disallow="pedestrian" speed="13.89" length="14.83" shape="43.49,-77.19 47.77,-78.13 50.79,-78.45 53.81,-78.13 58.08,-77.16"/>
    </edge>
    <edge id=":J15_6" function="internal">
        <lane id=":J15_6_0" index="0" disallow="pedestrian" speed="7.22" length="7.80" shape="45.01,-77.74 46.00,-78.10 47.78,-79.48 48.85,-81.34 49.20,-83.67"/>
    </edge>
    <edge id=":J16_0" function="internal">
        <lane id=":J16_0_0" index="0" allow="bicycle" speed="5.77" length="6.27" width="1.00" shape="12.71,-34.37 12.12,-36.03 11.20,-37.22 9.96,-37.93 8.40,-38.17"/>
    </edge>
    <edge id=":J16_1" function="internal">
        <lane id=":J16_1_0" index="0" allow="bicycle" speed="13.89" length="15.19" width="1.00" shape="12.71,-34.37 11.78,-38.76 11.48,-41.85 11.85,-44.94 12.88,-49.30"/>
    </edge>
    <edge id=":J16_2" function="internal">
        <lane id=":J16_2_0" index="0" disallow="pedestrian" speed="7.23" length="1.62" shape="14.84,-34.52 14.29,-36.04"/>
    </edge>
    <edge id=":J16_3" function="internal">
        <lane id=":J16_3_0" index="0" disallow="pedestrian" speed="13.89" length="14.84" shape="14.84,-34.52 13.92,-38.80 13.63,-41.83 13.99,-44.84 15.00,-49.11"/>
    </edge>
    <edge id=":J16_6" function="internal">
        <lane id=":J16_6_0" index="0" disallow="pedestrian" speed="7.23" length="7.80" shape="14.29,-36.04 13.94,-37.03 12.57,-38.83 10.72,-39.91 8.41,-40.27"/>
    </edge>
    <edge id=":J16_4" function="internal">
        <lane id=":J16_4_0" index="0" allow="bicycle" speed="5.84" length="6.33" width="1.00" shape="8.42,-45.57 10.01,-45.80 11.29,-46.50 12.25,-47.67 12.88,-49.30"/>
        <lane id=":J16_4_1" index="1" disallow="pedestrian" speed="7.29" length="9.43" shape="8.41,-43.47 10.76,-43.82 12.64,-44.88 14.05,-46.64 15.00,-49.11"/>
    </edge>
    <edge id=":J2_0" function="internal">
        <lane id=":J2_0_0" index="0" allow="bicycle" speed="5.33" length="6.46" width="1.00" shape="60.06,86.48 58.31,86.72 57.05,87.46 56.30,88.71 56.05,90.47"/>
    </edge>
    <edge id=":J2_1" function="internal">
        <lane id=":J2_1_0" index="0" allow="bicycle" speed="8.91" length="18.30" width="1.00" shape="60.06,86.48 55.08,85.75 51.50,83.62 49.32,80.11 48.55,75.20"/>
    </edge>
    <edge id=":J2_2" function="internal">
        <lane id=":J2_2_0" index="0" disallow="pedestrian" speed="6.76" length="9.87" shape="60.08,84.38 57.40,84.75 55.48,85.88 54.33,87.79 53.95,90.47"/>
    </edge>
    <edge id=":J2_3" function="internal">
        <lane id=":J2_3_0" index="0" disallow="pedestrian" speed="8.26" length="14.96" shape="60.08,84.38 56.00,83.78 53.07,82.05 51.28,79.18 50.65,75.17"/>
    </edge>
    <edge id=":J2_4" function="internal">
        <lane id=":J2_4_0" index="0" allow="bicycle" speed="5.41" length="6.54" width="1.00" shape="55.95,75.10 56.23,76.83 57.02,78.07 58.31,78.82 60.11,79.08"/>
    </edge>
    <edge id=":J2_5" function="internal">
        <lane id=":J2_5_0" index="0" allow="bicycle" speed="13.89" length="15.37" width="1.00" shape="55.95,75.10 56.05,90.47"/>
    </edge>
    <edge id=":J2_6" function="internal">
        <lane id=":J2_6_0" index="0" disallow="pedestrian" speed="6.82" length="1.39" shape="53.85,75.13 54.07,76.50"/>
    </edge>
    <edge id=":J2_7" function="internal">
        <lane id=":J2_7_0" index="0" disallow="pedestrian" speed="13.89" length="15.34" shape="53.85,75.13 53.95,90.47"/>
    </edge>
    <edge id=":J2_12" function="internal">
        <lane id=":J2_12_0" index="0" disallow="pedestrian" speed="6.82" length="8.49" shape="54.07,76.50 54.27,77.76 55.45,79.65 57.39,80.79 60.10,81.18"/>
    </edge>
    <edge id=":J2_8" function="internal">
        <lane id=":J2_8_0" index="0" allow="bicycle" speed="13.89" length="15.26" width="1.00" shape="48.65,90.46 48.55,75.20"/>
    </edge>
    <edge id=":J2_9" function="internal">
        <lane id=":J2_9_0" index="0" allow="bicycle" speed="8.86" length="9.38" width="1.00" shape="48.65,90.46 49.36,85.46 51.52,81.89 51.65,81.81"/>
    </edge>
    <edge id=":J2_10" function="internal">
        <lane id=":J2_10_0" index="0" disallow="pedestrian" speed="13.89" length="15.29" shape="50.75,90.47 50.65,75.17"/>
    </edge>
    <edge id=":J2_11" function="internal">
        <lane id=":J2_11_0" index="0" disallow="pedestrian" speed="8.21" length="4.13" shape="50.75,90.47 51.33,86.38"/>
    </edge>
    <edge id=":J2_13" function="internal">
        <lane id=":J2_13_0" index="0" allow="bicycle" speed="8.86" length="9.07" width="1.00" shape="51.65,81.81 55.10,79.76 60.11,79.08"/>
    </edge>
    <edge id=":J2_14" function="internal">
        <lane id=":J2_14_0" index="0" disallow="pedestrian" speed="8.21" length="10.92" shape="51.33,86.38 53.09,83.47 56.01,81.74 60.10,81.18"/>
    </edge>
    <edge id=":J22_0" function="internal">
        <lane id=":J22_0_0" index="0" allow="bicycle" speed="13.89" length="6.21" width="1.00" shape="230.59,87.59 224.39,87.55"/>
        <lane id=":J22_0_1" index="1" disallow="pedestrian" speed="13.89" length="6.21" shape="230.61,85.49 224.40,85.45"/>
    </edge>
    <edge id=":J22_2" function="internal">
        <lane id=":J22_2_0" index="0" allow="bicycle" speed="13.89" length="6.22" width="1.00" shape="224.44,80.15 230.66,80.19"/>
        <lane id=":J22_2_1" index="1" disallow="pedestrian" speed="13.89" length="6.22" shape="224.42,82.25 230.64,82.29"/>
    </edge>
    <edge id=":J22_4" function="internal">
        <lane id=":J22_4_0" index="0" allow="bicycle" speed="5.01" length="4.95" width="1.00" shape="226.36,91.56 226.25,89.81 225.89,88.56 225.27,87.81 224.39,87.55"/>
        <lane id=":J22_4_1" index="1" disallow="pedestrian" speed="6.01" length="7.59" shape="227.46,91.58 227.29,88.90 226.73,86.99 225.76,85.84 224.40,85.45"/>
    </edge>
    <edge id=":J22_6" function="internal">
        <lane id=":J22_6_0" index="0" disallow="pedestrian" speed="6.97" length="10.51" shape="227.46,91.58 227.69,87.50 228.30,84.60 229.28,82.86 230.64,82.29"/>
    </edge>
    <edge id=":J23_0" function="internal">
        <lane id=":J23_0_0" index="0" speed="13.89" length="15.20" shape="59.94,187.05 44.74,187.21"/>
    </edge>
    <edge id=":J23_1" function="internal">
        <lane id=":J23_1_0" index="0" disallow="pedestrian" speed="7.60" length="4.58" shape="59.94,187.05 55.90,186.62 55.43,186.42"/>
    </edge>
    <edge id=":J23_8" function="internal">
        <lane id=":J23_8_0" index="0" disallow="pedestrian" speed="7.60" length="8.04" shape="55.43,186.42 53.00,185.42 51.27,183.46 50.69,180.73"/>
    </edge>
    <edge id=":J23_2" function="internal">
        <lane id=":J23_2_0" index="0" allow="bicycle" speed="4.72" length="4.94" width="1.00" shape="55.99,180.73 56.24,181.60 56.99,182.22 58.24,182.61 59.99,182.75"/>
        <lane id=":J23_2_1" index="1" disallow="pedestrian" speed="6.03" length="7.55" shape="53.89,180.73 54.27,182.07 55.41,183.04 57.31,183.63 59.98,183.85"/>
    </edge>
    <edge id=":J23_4" function="internal">
        <lane id=":J23_4_0" index="0" disallow="pedestrian" speed="7.65" length="12.57" shape="53.89,180.73 53.32,183.46 51.60,185.44 48.74,186.69 44.74,187.21"/>
    </edge>
    <edge id=":J23_5" function="internal">
        <lane id=":J23_5_0" index="0" allow="bicycle" speed="5.10" length="5.01" width="1.00" shape="44.61,182.91 46.35,182.73 47.60,182.30 48.34,181.63 48.59,180.73"/>
        <lane id=":J23_5_1" index="1" disallow="pedestrian" speed="6.09" length="7.59" shape="44.64,184.01 47.29,183.73 49.18,183.09 50.31,182.09 50.69,180.73"/>
    </edge>
    <edge id=":J23_7" function="internal">
        <lane id=":J23_7_0" index="0" speed="13.89" length="15.33" shape="44.64,184.01 59.98,183.85"/>
    </edge>
    <edge id=":J24_0" function="internal">
        <lane id=":J24_0_0" index="0" speed="12.95" length="5.06" shape="230.92,147.18 227.04,150.43"/>
    </edge>
    <edge id=":J24_1" function="internal">
        <lane id=":J24_1_0" index="0" speed="7.00" length="4.75" shape="224.95,148.00 225.79,147.12 226.40,146.13 226.76,145.03 226.90,143.82"/>
    </edge>
    <edge id=":J26_0" function="internal">
        <lane id=":J26_0_0" index="0" allow="bicycle" speed="12.95" length="13.99" width="1.00" shape="312.97,88.20 308.71,88.65 305.68,89.82 303.18,91.56 300.54,93.72"/>
    </edge>
    <edge id=":J26_1" function="internal">
        <lane id=":J26_1_0" index="0" allow="bicycle" speed="13.89" length="17.50" width="1.00" shape="312.97,88.20 295.47,88.14"/>
    </edge>
    <edge id=":J26_2" function="internal">
        <lane id=":J26_2_0" index="0" allow="bicycle" speed="11.71" length="7.86" width="1.00" shape="312.97,88.20 309.62,87.04 306.15,84.48"/>
    </edge>
    <edge id=":J26_3" function="internal">
        <lane id=":J26_3_0" index="0" disallow="pedestrian" speed="12.95" length="1.47" shape="312.95,86.11 311.49,86.31"/>
    </edge>
    <edge id=":J26_4" function="internal">
        <lane id=":J26_4_0" index="0" disallow="pedestrian" speed="13.89" length="17.47" shape="312.95,86.11 295.48,86.04"/>
    </edge>
    <edge id=":J26_5" function="internal">
        <lane id=":J26_5_0" index="0" disallow="pedestrian" speed="11.19" length="3.05" shape="312.95,86.11 310.10,85.02"/>
    </edge>
    <edge id=":J26_16" function="internal">
        <lane id=":J26_16_0" index="0" allow="bicycle" speed="11.71" length="11.71" width="1.00" shape="306.15,84.48 305.55,84.04 301.56,79.99 298.47,75.70"/>
    </edge>
    <edge id=":J26_17" function="internal">
        <lane id=":J26_17_0" index="0" disallow="pedestrian" speed="12.95" length="13.71" shape="311.49,86.31 308.35,86.75 305.11,88.34 302.52,90.51 299.86,92.86"/>
    </edge>
    <edge id=":J26_18" function="internal">
        <lane id=":J26_18_0" index="0" disallow="pedestrian" speed="11.19" length="14.37" shape="310.10,85.02 306.55,82.24 303.04,78.53 300.28,74.65"/>
    </edge>
    <edge id=":J26_6" function="internal">
        <lane id=":J26_6_0" index="0" allow="bicycle" speed="9.29" length="12.23" width="1.00" shape="304.88,72.01 307.29,75.86 309.43,78.62 311.30,80.26 312.92,80.81"/>
    </edge>
    <edge id=":J26_7" function="internal">
        <lane id=":J26_7_0" index="0" allow="bicycle" speed="8.82" length="25.58" width="1.00" shape="304.88,72.01 307.81,79.12 307.22,84.18 303.10,87.19 295.47,88.14"/>
    </edge>
    <edge id=":J26_8" function="internal">
        <lane id=":J26_8_0" index="0" disallow="pedestrian" speed="10.21" length="14.40" shape="303.06,73.05 305.81,77.38 308.37,80.46 310.75,82.30 312.93,82.91"/>
    </edge>
    <edge id=":J26_9" function="internal">
        <lane id=":J26_9_0" index="0" disallow="pedestrian" speed="10.46" length="22.21" shape="303.06,73.05 305.43,78.75 305.68,83.95 303.83,88.65 299.86,92.86"/>
    </edge>
    <edge id=":J26_10" function="internal">
        <lane id=":J26_10_0" index="0" disallow="pedestrian" speed="8.12" length="20.59" shape="303.06,73.05 305.42,78.78 304.94,82.85 301.63,85.27 295.48,86.04"/>
    </edge>
    <edge id=":J26_11" function="internal">
        <lane id=":J26_11_0" index="0" allow="bicycle" speed="5.02" length="7.99" width="1.00" shape="295.53,80.74 297.91,80.44 299.20,79.50 299.38,77.92 298.47,75.70"/>
    </edge>
    <edge id=":J26_12" function="internal">
        <lane id=":J26_12_0" index="0" allow="bicycle" speed="13.89" length="17.39" width="1.00" shape="295.53,80.74 312.92,80.81"/>
    </edge>
    <edge id=":J26_13" function="internal">
        <lane id=":J26_13_0" index="0" disallow="pedestrian" speed="6.57" length="1.63" shape="295.51,82.84 297.13,82.64"/>
    </edge>
    <edge id=":J26_14" function="internal">
        <lane id=":J26_14_0" index="0" disallow="pedestrian" speed="13.89" length="17.42" shape="295.51,82.84 312.93,82.91"/>
    </edge>
    <edge id=":J26_15" function="internal">
        <lane id=":J26_15_0" index="0" disallow="pedestrian" speed="7.29" length="6.64" shape="295.51,82.84 302.11,83.52"/>
    </edge>
    <edge id=":J26_19" function="internal">
        <lane id=":J26_19_0" index="0" disallow="pedestrian" speed="6.57" length="11.35" shape="297.13,82.64 299.38,82.36 301.47,80.83 301.77,78.26 300.28,74.65"/>
    </edge>
    <edge id=":J26_20" function="internal">
        <lane id=":J26_20_0" index="0" disallow="pedestrian" speed="7.29" length="12.89" shape="302.11,83.52 305.04,85.41 304.29,88.53 299.86,92.86"/>
    </edge>
    <edge id=":J27_0" function="internal">
        <lane id=":J27_0_0" index="0" speed="6.82" length="3.52" shape="184.55,187.08 183.75,187.73 183.11,188.09 182.40,188.23 181.37,188.25"/>
    </edge>
    <edge id=":J27_1" function="internal">
        <lane id=":J27_1_0" index="0" speed="4.29" length="1.17" shape="181.40,185.05 181.74,185.04 181.98,184.99 182.19,184.88 182.46,184.66"/>
    </edge>
    <edge id=":J3_0" function="internal">
        <lane id=":J3_0_0" index="0" allow="bicycle" speed="5.43" length="6.58" width="1.00" shape="46.73,-164.84 46.47,-166.67 45.73,-167.98 44.49,-168.79 42.76,-169.08"/>
    </edge>
    <edge id=":J3_1" function="internal">
        <lane id=":J3_1_0" index="0" allow="bicycle" speed="8.86" length="18.52" width="1.00" shape="46.73,-164.84 47.42,-169.88 49.57,-173.47 53.16,-175.60 58.20,-176.28"/>
    </edge>
    <edge id=":J3_2" function="internal">
        <lane id=":J3_2_0" index="0" disallow="pedestrian" speed="6.84" length="9.91" shape="48.83,-164.85 48.44,-167.58 47.31,-169.54 45.43,-170.74 42.80,-171.18"/>
    </edge>
    <edge id=":J3_3" function="internal">
        <lane id=":J3_3_0" index="0" disallow="pedestrian" speed="8.20" length="15.11" shape="48.83,-164.85 49.39,-168.96 51.14,-171.88 54.07,-173.62 58.18,-174.18"/>
    </edge>
    <edge id=":J3_4" function="internal">
        <lane id=":J3_4_0" index="0" allow="bicycle" speed="5.32" length="6.48" width="1.00" shape="58.14,-168.88 56.38,-168.64 55.12,-167.89 54.37,-166.64 54.13,-164.88"/>
    </edge>
    <edge id=":J3_5" function="internal">
        <lane id=":J3_5_0" index="0" allow="bicycle" speed="13.89" length="15.38" width="1.00" shape="58.14,-168.88 42.76,-169.08"/>
    </edge>
    <edge id=":J3_6" function="internal">
        <lane id=":J3_6_0" index="0" disallow="pedestrian" speed="6.75" length="1.43" shape="58.16,-170.98 56.74,-170.79"/>
    </edge>
    <edge id=":J3_7" function="internal">
        <lane id=":J3_7_0" index="0" disallow="pedestrian" speed="13.89" length="15.35" shape="58.16,-170.98 42.80,-171.18"/>
    </edge>
    <edge id=":J3_12" function="internal">
        <lane id=":J3_12_0" index="0" disallow="pedestrian" speed="6.75" length="8.47" shape="56.74,-170.79 55.46,-170.61 53.54,-169.48 52.40,-167.56 52.03,-164.87"/>
    </edge>
    <edge id=":J3_8" function="internal">
        <lane id=":J3_8_0" index="0" allow="bicycle" speed="13.89" length="15.30" width="1.00" shape="42.90,-176.48 58.20,-176.28"/>
    </edge>
    <edge id=":J3_9" function="internal">
        <lane id=":J3_9_0" index="0" allow="bicycle" speed="8.93" length="9.29" width="1.00" shape="42.90,-176.48 47.79,-175.68 51.29,-173.48 51.39,-173.31"/>
    </edge>
    <edge id=":J3_10" function="internal">
        <lane id=":J3_10_0" index="0" disallow="pedestrian" speed="13.89" length="15.32" shape="42.86,-174.38 58.18,-174.18"/>
    </edge>
    <edge id=":J3_11" function="internal">
        <lane id=":J3_11_0" index="0" disallow="pedestrian" speed="8.28" length="4.05" shape="42.86,-174.38 46.86,-173.72"/>
    </edge>
    <edge id=":J3_13" function="internal">
        <lane id=":J3_13_0" index="0" allow="bicycle" speed="8.93" length="9.03" width="1.00" shape="51.39,-173.31 53.40,-169.88 54.13,-164.88"/>
    </edge>
    <edge id=":J3_14" function="internal">
        <lane id=":J3_14_0" index="0" disallow="pedestrian" speed="8.28" length="10.94" shape="46.86,-173.72 49.71,-171.92 51.44,-168.97 52.03,-164.87"/>
    </edge>
    <edge id=":J4_0" function="internal">
        <lane id=":J4_0_0" index="0" allow="bicycle" speed="8.06" length="24.01" width="1.00" shape="-132.90,-38.43 -139.27,-40.04 -142.88,-44.10 -143.28,-49.52 -140.00,-55.21"/>
        <lane id=":J4_0_1" index="1" disallow="pedestrian" speed="8.06" length="22.87" shape="-132.90,-40.53 -140.12,-41.37 -143.46,-43.85 -142.92,-47.98 -138.49,-53.75"/>
    </edge>
    <edge id=":J4_2" function="internal">
        <lane id=":J4_2_0" index="0" allow="bicycle" speed="4.56" length="7.33" width="1.00" shape="-134.68,-50.07 -136.10,-48.22 -136.27,-46.90 -135.20,-46.10 -132.89,-45.83"/>
        <lane id=":J4_2_1" index="1" disallow="pedestrian" speed="6.34" length="13.48" shape="-136.19,-51.53 -138.80,-48.13 -139.12,-45.69 -137.15,-44.23 -132.89,-43.73"/>
    </edge>
    <edge id=":J47_0" function="internal">
        <lane id=":J47_0_0" index="0" allow="bicycle" speed="6.35" length="8.02" width="1.00" shape="210.60,-161.92 209.95,-164.44 208.97,-166.24 207.66,-167.32 206.03,-167.69"/>
    </edge>
    <edge id=":J47_1" function="internal">
        <lane id=":J47_1_0" index="0" allow="bicycle" speed="8.77" length="20.44" width="1.00" shape="210.60,-161.92 210.45,-167.67 212.26,-171.76 216.01,-174.18 221.71,-174.95"/>
    </edge>
    <edge id=":J47_2" function="internal">
        <lane id=":J47_2_0" index="0" disallow="pedestrian" speed="7.59" length="10.97" shape="212.67,-162.28 211.78,-165.55 210.38,-167.89 208.47,-169.31 206.05,-169.79"/>
    </edge>
    <edge id=":J47_3" function="internal">
        <lane id=":J47_3_0" index="0" disallow="pedestrian" speed="8.11" length="16.59" shape="212.67,-162.28 212.55,-166.94 214.01,-170.26 217.06,-172.23 221.69,-172.85"/>
    </edge>
    <edge id=":J47_4" function="internal">
        <lane id=":J47_4_0" index="0" allow="bicycle" speed="5.18" length="6.88" width="1.00" shape="221.63,-167.55 219.71,-167.29 218.45,-166.47 217.84,-165.10 217.89,-163.16"/>
    </edge>
    <edge id=":J47_5" function="internal">
        <lane id=":J47_5_0" index="0" allow="bicycle" speed="13.89" length="15.61" width="1.00" shape="221.63,-167.55 206.03,-167.69"/>
    </edge>
    <edge id=":J47_6" function="internal">
        <lane id=":J47_6_0" index="0" disallow="pedestrian" speed="6.64" length="1.48" shape="221.65,-169.65 220.19,-169.45"/>
    </edge>
    <edge id=":J47_7" function="internal">
        <lane id=":J47_7_0" index="0" disallow="pedestrian" speed="13.89" length="15.61" shape="221.65,-169.65 206.05,-169.79"/>
    </edge>
    <edge id=":J47_12" function="internal">
        <lane id=":J47_12_0" index="0" disallow="pedestrian" speed="6.64" length="9.25" shape="220.19,-169.45 218.66,-169.25 216.69,-167.97 215.75,-165.83 215.82,-162.81"/>
    </edge>
    <edge id=":J47_8" function="internal">
        <lane id=":J47_8_0" index="0" allow="bicycle" speed="13.89" length="15.62" width="1.00" shape="206.09,-175.09 221.71,-174.95"/>
    </edge>
    <edge id=":J47_9" function="internal">
        <lane id=":J47_9_0" index="0" allow="bicycle" speed="9.54" length="8.74" width="1.00" shape="206.09,-175.09 210.50,-174.32 213.93,-172.07 214.02,-171.94"/>
    </edge>
    <edge id=":J47_10" function="internal">
        <lane id=":J47_10_0" index="0" disallow="pedestrian" speed="13.89" length="15.62" shape="206.07,-172.99 221.69,-172.85"/>
    </edge>
    <edge id=":J47_11" function="internal">
        <lane id=":J47_11_0" index="0" disallow="pedestrian" speed="8.92" length="3.68" shape="206.07,-172.99 209.69,-172.33"/>
    </edge>
    <edge id=":J47_13" function="internal">
        <lane id=":J47_13_0" index="0" allow="bicycle" speed="9.54" length="9.70" width="1.00" shape="214.02,-171.94 216.40,-168.35 217.89,-163.16"/>
    </edge>
    <edge id=":J47_14" function="internal">
        <lane id=":J47_14_0" index="0" disallow="pedestrian" speed="8.92" length="11.80" shape="209.69,-172.33 212.52,-170.42 214.57,-167.24 215.82,-162.81"/>
    </edge>
    <edge id=":J48_0" function="internal">